*EXP.DETAILS: MZRS8142MZ RWANDA WATER LIMITED YIELDS SHORT VARIETY SEASON 2

*GENERAL
@PEOPLE
Siyabusa
@ADDRESS
IITA_ABU_BUK 
@SITE
ZARIA 2016

*TREATMENTS                        -------------FACTOR LEVELS------------
@N R O C TNAME.................... CU FL SA IC MP MI MF MR MC MT ME MH SM
 1 1 1 0 01-Jul/182                 1  1  1  1  1  0  1  0  0  0  0  0  1
 2 1 1 0 02-Jul/183                 1  1  1  1  2  0  1  0  0  0  0  0  1
 3 1 1 0 08-Jul/189                 1  1  1  1  3  0  1  0  0  0  0  0  1
 4 1 1 0 09-Jul/190                 1  1  1  1  4  0  1  0  0  0  0  0  1
 5 1 1 0 15-Jul/196                 1  1  1  1  5  0  1  0  0  0  0  0  1
 6 1 1 0 16-Jul/197                 1  1  1  1  6  0  1  0  0  0  0  0  1
 7 1 1 0 22-Jul/203                 1  1  1  1  7  0  1  0  0  0  0  0  1
 8 1 1 0 23-Jul/204                 1  1  1  1  8  0  1  0  0  0  0  0  1
 9 1 1 0 29-Jul/210                 1  1  1  1  9  0  1  0  0  0  0  0  1
10 1 1 0 30-Jul/211                 1  1  1  1 10  0  1  0  0  0  0  0  1
11 1 1 0 05-Aug/217                 1  1  1  1 11  0  1  0  0  0  0  0  1
12 1 1 0 06-Aug/218                 1  1  1  1 12  0  1  0  0  0  0  0  1
13 1 1 0 12-Aug/224                 1  1  1  1 13  0  1  0  0  0  0  0  1
14 1 1 0 13-Aug/225                 1  1  1  1 14  0  1  0  0  0  0  0  1
15 1 1 0 19-Aug/231                 1  1  1  1 15  0  1  0  0  0  0  0  1
16 1 1 0 20-Aug/232                 1  1  1  1 16  0  1  0  0  0  0  0  1
17 1 1 0 26-Aug/238                 1  1  1  1 17  0  1  0  0  0  0  0  1
18 1 1 0 27-Aug/239                 1  1  1  1 18  0  1  0  0  0  0  0  1
19 1 1 0 02-Sep/245                 1  1  1  1 19  0  1  0  0  0  0  0  1
20 1 1 0 03-Sep/246                 1  1  1  1 20  0  1  0  0  0  0  0  1
21 1 1 0 09-Sep/252                 1  1  1  1 21  0  1  0  0  0  0  0  1
22 1 1 0 10-Sep/253                 1  1  1  1 22  0  1  0  0  0  0  0  1
23 1 1 0 16-Sep/259                 1  1  1  1 23  0  1  0  0  0  0  0  1
24 1 1 0 17-Sep/260                 1  1  1  1 24  0  1  0  0  0  0  0  1
25 1 1 0 23-Sep/266                 1  1  1  1 25  0  1  0  0  0  0  0  1
26 1 1 0 24-Sep/267                 1  1  1  1 26  0  1  0  0  0  0  0  1
27 1 1 0 30-Sep/273                 1  1  1  1 27  0  1  0  0  0  0  0  1
28 1 1 0 31-Sep/274                 1  1  1  1 28  0  1  0  0  0  0  0  1
29 1 1 0 07-Oct/280                 1  1  1  1 29  0  1  0  0  0  0  0  1
30 1 1 0 08-Oct/281                 1  1  1  1 30  0  1  0  0  0  0  0  1
31 1 1 0 14-Oct/287                 1  1  1  1 31  0  1  0  0  0  0  0  1
32 1 1 0 15-Oct/288                 1  1  1  1 32  0  1  0  0  0  0  0  1
33 1 1 0 21-Oct/294                 1  1  1  1 33  0  1  0  0  0  0  0  1
34 1 1 0 22-Oct/295                 1  1  1  1 34  0  1  0  0  0  0  0  1
35 1 1 0 28-Oct/301                 1  1  1  1 35  0  1  0  0  0  0  0  1
36 1 1 0 29-Oct/302                 1  1  1  1 36  0  1  0  0  0  0  0  1

*CULTIVARS
@C CR INGENO CNAME
 1 MZ IB0002 CP170 

*FIELDS
@L ID_FIELD WSTA....  FLSA  FLOB  FLDT  FLDD  FLDS  FLST SLTX  SLDP  ID_SOIL    FLNAME
 1 00000001 AMAH8140   -99   -99   -99   -99   -99   -99 SIL    237  ZR00000100 Zaria
@L ...........XCRD ...........YCRD .....ELEV .............AREA .SLEN .FLWR .SLAS FLHST FHDUR
 1             -99             -99       -99               -99   -99   -99   -99   -99   -99

*SOIL ANALYSIS
@A SADAT  SMHB  SMPX  SMKE  SANAME
 1 81001   -99   -99   -99  -99
@A  SABL  SADM  SAOC  SANI SAPHW SAPHB  SAPX  SAKE  SASC
 1    15   -99   -99   -99   -99   -99   -99   -99   -99

*INITIAL CONDITIONS
@C   PCR ICDAT  ICRT  ICND  ICRN  ICRE  ICWD ICRES ICREN ICREP ICRIP ICRID ICNAME
 1    MZ 15010  6500   -99     0     0   -99   -99   -99   -99   -99   -99 2015_Zaria
@C  ICBL  SH2O  SNH4  SNO3
 1    11  .234    .2   1.5
 1    59  .206    .2   1.5
 1   100  .225    .2   1.5
 1   138  .159    .2   1.5
 1   185  .159    .2   1.5
 1   237  .089    .2   1.5

*PLANTING DETAILS
@P PDATE EDATE  PPOP  PPOE  PLME  PLDS  PLRS  PLRD  PLDP  PLWT  PAGE  PENV  PLPH  SPRL                        PLNAME
 1 81182   -99   5.3   5.3     S     R    75   -99     5   -99   -99   -99   -99   -99                        182
 2 81183   -99   5.3   5.3     S     R    75   -99     5   -99   -99   -99   -99   -99                        183
 3 81189   -99   5.3   5.3     S     R    75   -99     5   -99   -99   -99   -99   -99                        189
 4 81190   -99   5.3   5.3     S     R    75   -99     5   -99   -99   -99   -99   -99                        190
 5 81196   -99   5.3   5.3     S     R    75   -99     5   -99   -99   -99   -99   -99                        196
 6 81197   -99   5.3   5.3     S     R    75   -99     5   -99   -99   -99   -99   -99                        197
 7 81203   -99   5.3   5.3     S     R    75   -99     5   -99   -99   -99   -99   -99                        203
 8 81204   -99   5.3   5.3     S     R    75   -99     5   -99   -99   -99   -99   -99                        204
 9 81210   -99   5.3   5.3     S     R    75   -99     5   -99   -99   -99   -99   -99                        210
10 81211   -99   5.3   5.3     S     R    75   -99     5   -99   -99   -99   -99   -99                        211
11 81217   -99   5.3   5.3     S     R    75   -99     5   -99   -99   -99   -99   -99                        217
12 81218   -99   5.3   5.3     S     R    75   -99     5   -99   -99   -99   -99   -99                        218
13 81224   -99   5.3   5.3     S     R    75   -99     5   -99   -99   -99   -99   -99                        224
14 81225   -99   5.3   5.3     S     R    75   -99     5   -99   -99   -99   -99   -99                        225
15 81231   -99   5.3   5.3     S     R    75   -99     5   -99   -99   -99   -99   -99                        231
16 81232   -99   5.3   5.3     S     R    75   -99     5   -99   -99   -99   -99   -99                        232
17 81238   -99   5.3   5.3     S     R    75   -99     5   -99   -99   -99   -99   -99                        238
18 81239   -99   5.3   5.3     S     R    75   -99     5   -99   -99   -99   -99   -99                        239
19 81245   -99   5.3   5.3     S     R    75   -99     5   -99   -99   -99   -99   -99                        245
20 81246   -99   5.3   5.3     S     R    75   -99     5   -99   -99   -99   -99   -99                        246
21 81252   -99   5.3   5.3     S     R    75   -99     5   -99   -99   -99   -99   -99                        252
22 81253   -99   5.3   5.3     S     R    75   -99     5   -99   -99   -99   -99   -99                        253
23 81259   -99   5.3   5.3     S     R    75   -99     5   -99   -99   -99   -99   -99                        259
24 81260   -99   5.3   5.3     S     R    75   -99     5   -99   -99   -99   -99   -99                        260
25 81266   -99   5.3   5.3     S     R    75   -99     5   -99   -99   -99   -99   -99                        266
26 81267   -99   5.3   5.3     S     R    75   -99     5   -99   -99   -99   -99   -99                        267
27 81273   -99   5.3   5.3     S     R    75   -99     5   -99   -99   -99   -99   -99                        273
28 81274   -99   5.3   5.3     S     R    75   -99     5   -99   -99   -99   -99   -99                        274
29 81280   -99   5.3   5.3     S     R    75   -99     5   -99   -99   -99   -99   -99                        280
30 81281   -99   5.3   5.3     S     R    75   -99     5   -99   -99   -99   -99   -99                        281
31 81287   -99   5.3   5.3     S     R    75   -99     5   -99   -99   -99   -99   -99                        287
32 81288   -99   5.3   5.3     S     R    75   -99     5   -99   -99   -99   -99   -99                        288
33 81294   -99   5.3   5.3     S     R    75   -99     5   -99   -99   -99   -99   -99                        294
34 81295   -99   5.3   5.3     S     R    75   -99     5   -99   -99   -99   -99   -99                        295
35 81301   -99   5.3   5.3     S     R    75   -99     5   -99   -99   -99   -99   -99                        301
36 81302   -99   5.3   5.3     S     R    75   -99     5   -99   -99   -99   -99   -99                        302

*IRRIGATION AND WATER MANAGEMENT
@I  EFIR  IDEP  ITHR  IEPT  IOFF  IAME  IAMT IRNAME
 1     1    30    50   100 GS000 IR001    10 -99
@I IDATE  IROP IRVAL
 1 81001   -99   -99

*FERTILIZERS (INORGANIC)
@F FDATE  FMCD  FACD  FDEP  FAMN  FAMP  FAMK  FAMC  FAMO  FOCD FERNAME
 1 81182 FE006 AP004     4    29    69     0   -99   -99   -99 Rwanda standard maize fertilizer
 1 81210 FE005 AP003     0    23     0     0   -99   -99   -99 Rwanda standard maize fertilizer
 1 81224 FE005 AP003     0    23     0     0   -99   -99   -99 Rwanda standard maize fertilizer
 
*RESIDUES AND ORGANIC FERTILIZER
@R RDATE  RCOD  RAMT  RESN  RESP  RESK  RINP  RDEP  RMET RENAME
 1 81001   -99   -99   -99   -99   -99   -99   -99   -99 -99

*ENVIRONMENT MODIFICATIONS
@E ODATE EDAY  ERAD  EMAX  EMIN  ERAIN ECO2  EDEW  EWIND ENVNAME  
 1 81001 A   0 A   0 A   0 A   0 A 0.0 A   0 A   0 A   0 

*HARVEST DETAILS
@H HDATE  HSTG  HCOM HSIZE   HPC  HBPC HNAME
 1   130 GS000   -99   -99   -99   -99 Maize

*SIMULATION CONTROLS
@N GENERAL     NYERS NREPS START SDATE RSEED SNAME.................... SMODEL
 1 GE             40     1     S 81001  2150 Zaria 2015
@N OPTIONS     WATER NITRO SYMBI PHOSP POTAS DISES  CHEM  TILL   CO2
 1 OP              Y     Y     N     N     N     N     N     N     M
@N METHODS     WTHER INCON LIGHT EVAPO INFIL PHOTO HYDRO NSWIT MESOM MESEV MESOL
 1 ME              M     M     E     R     S     L     R     1     G     S     2
@N MANAGEMENT  PLANT IRRIG FERTI RESID HARVS
 1 MA              R     N     R     N     M
@N OUTPUTS     FNAME OVVEW SUMRY FROPT GROUT CAOUT WAOUT NIOUT MIOUT DIOUT VBOSE CHOUT OPOUT FMOPT
 1 OU              N     Y     Y     1     N     N     N     N     N     N     0     N     N     A

@  AUTOMATIC MANAGEMENT
@N PLANTING    PFRST PLAST PH2OL PH2OU PH2OD PSTMX PSTMN
 1 PL          81001 81001    40   100    30    40    10
@N IRRIGATION  IMDEP ITHRL ITHRU IROFF IMETH IRAMT IREFF
 1 IR             30    50   100 GS000 IR001    10     1
@N NITROGEN    NMDEP NMTHR NAMNT NCODE NAOFF
 1 NI             30    50    25 FE001 GS000
@N RESIDUES    RIPCN RTIME RIDEP
 1 RE            100     1    20
@N HARVEST     HFRST HLAST HPCNP HPCNR
 1 HA              0 15161   100     0



