*EXP.DETAILS: MZRS8141MZ RWANDA WATER LIMITED YIELDS SHORT VARIETY SEASON 1

*GENERAL
@PEOPLE
Siyabusa
@ADDRESS
IITA_ABU_BUK 
@SITE
ZARIA 2016

*TREATMENTS                        -------------FACTOR LEVELS------------
@N R O C TNAME.................... CU FL SA IC MP MI MF MR MC MT ME MH SM
 1 1 1 0 01-Jan/001                 1  1  0  1  1  0  1  0  0  0  0  0  1
 2 1 1 0 02-Jan/002                 1  1  0  1  2  0  1  0  0  0  0  0  1
 3 1 1 0 08-Jan/008                 1  1  0  1  3  0  1  0  0  0  0  0  1
 4 1 1 0 09-Jan/009                 1  1  0  1  4  0  1  0  0  0  0  0  1
 5 1 1 0 15_Jan/015                 1  1  0  1  5  0  1  0  0  0  0  0  1
 6 1 1 0 16-Jan/016                 1  1  0  1  6  0  1  0  0  0  0  0  1
 7 1 1 0 22-Jan/022                 1  1  0  1  7  0  1  0  0  0  0  0  1
 8 1 1 0 23-Jan/023                 1  1  0  1  8  0  1  0  0  0  0  0  1
 9 1 1 0 29-Jan/029                 1  1  0  1  9  0  1  0  0  0  0  0  1
10 1 1 0 30-Jan/030                 1  1  0  1 10  0  1  0  0  0  0  0  1
11 1 1 0 05-Feb/036                 1  1  0  1 11  0  1  0  0  0  0  0  1
12 1 1 0 12_Feb/043                 1  1  0  1 12  0  1  0  0  0  0  0  1
13 1 1 0 19-Feb/050                 1  1  0  1 13  0  1  0  0  0  0  0  1
14 1 1 0 26-Feb/057                 1  1  0  1 14  0  1  0  0  0  0  0  1
15 1 1 0 03-Mar/063                 1  1  0  1 15  0  1  0  0  0  0  0  1
16 1 1 0 04-Mar/064                 1  1  0  1 16  0  1  0  0  0  0  0  1
17 1 1 0 05-Mar/065                 1  1  0  1 17  0  1  0  0  0  0  0  1
18 1 1 0 10-Mar/070                 1  1  0  1 18  0  1  0  0  0  0  0  1
19 1 1 0 11-Mar/071                 1  1  0  1 19  0  1  0  0  0  0  0  1
20 1 1 0 12-Mar/072                 1  1  0  1 20  0  1  0  0  0  0  0  1
21 1 1 0 17-Mar/077                 1  1  0  1 21  0  1  0  0  0  0  0  1
22 1 1 0 18-Mar/078                 1  1  0  1 22  0  1  0  0  0  0  0  1
23 1 1 0 19-Mar/079                 1  1  0  1 23  0  1  0  0  0  0  0  1
24 1 1 0 24-Mar/084                 1  1  0  1 24  0  1  0  0  0  0  0  1
25 1 1 0 25_Mar/085                 1  1  0  1 25  0  1  0  0  0  0  0  1
26 1 1 0 26-Mar/086                 1  1  0  1 26  0  1  0  0  0  0  0  1
27 1 1 0 31-Mar/091                 1  1  0  1 27  0  1  0  0  0  0  0  1
28 1 1 0 01-Apr/092                 1  1  0  1 28  0  1  0  0  0  0  0  1
29 1 1 0 02-Apr/093                 1  1  0  1 29  0  1  0  0  0  0  0  1
30 1 1 0 07-Mar/098                 1  1  0  1 30  0  1  0  0  0  0  0  1
31 1 1 0 08-Apr/099                 1  1  0  1 31  0  1  0  0  0  0  0  1
32 1 1 0 09-Apr/100                 1  1  0  1 32  0  1  0  0  0  0  0  1
33 1 1 0 14-Mar/105                 1  1  0  1 33  0  1  0  0  0  0  0  1
34 1 1 0 15-Apr/106                 1  1  0  1 34  0  1  0  0  0  0  0  1
35 1 1 0 16-Mar/107                 1  1  0  1 35  0  1  0  0  0  0  0  1
36 1 1 0 21-Mar/112                 1  1  0  1 36  0  1  0  0  0  0  0  1
37 1 1 0 22-Mar/113                 1  1  0  1 37  0  1  0  0  0  0  0  1
38 1 1 0 23_Mar/114                 1  1  0  1 38  0  1  0  0  0  0  0  1
39 1 1 0 28-Mar/119                 1  1  0  1 39  0  1  0  0  0  0  0  1
40 1 1 0 29-Mar/120                 1  1  0  1 40  0  1  0  0  0  0  0  1
41 1 1 0 30-Apr/121                 1  1  0  1 41  0  1  0  0  0  0  0  1

*CULTIVARS
@C CR INGENO CNAME
 1 MZ IB0002 CP170 

*FIELDS
@L ID_FIELD WSTA....  FLSA  FLOB  FLDT  FLDD  FLDS  FLST SLTX  SLDP  ID_SOIL    FLNAME
 1 00000001 AMAH8140   -99   -99   -99   -99   -99   -99 SIL    237  ZR00000100 Zaria
@L ...........XCRD ...........YCRD .....ELEV .............AREA .SLEN .FLWR .SLAS FLHST FHDUR
 1             -99             -99       -99               -99   -99   -99   -99   -99   -99

*SOIL ANALYSIS
@A SADAT  SMHB  SMPX  SMKE  SANAME
 1 81001   -99   -99   -99  -99
@A  SABL  SADM  SAOC  SANI SAPHW SAPHB  SAPX  SAKE  SASC
 1    15   -99   -99   -99   -99   -99   -99   -99   -99

*INITIAL CONDITIONS
@C   PCR ICDAT  ICRT  ICND  ICRN  ICRE  ICWD ICRES ICREN ICREP ICRIP ICRID ICNAME
 1    MZ 15010  6500   -99     0     0   -99   -99   -99   -99   -99   -99 2015_Zaria
@C  ICBL  SH2O  SNH4  SNO3
 1    11  .234    .2   1.5
 1    59  .206    .2   1.5
 1   100  .225    .2   1.5
 1   138  .159    .2   1.5
 1   185  .159    .2   1.5
 1   237  .089    .2   1.5

*PLANTING DETAILS
@P PDATE EDATE  PPOP  PPOE  PLME  PLDS  PLRS  PLRD  PLDP  PLWT  PAGE  PENV  PLPH  SPRL                        PLNAME
 1 81001   -99   5.3   5.3     S     R    75   -99     5   -99   -99   -99   -99   -99                        001
 2 81002   -99   5.3   5.3     S     R    75   -99     5   -99   -99   -99   -99   -99                        002
 3 81008   -99   5.3   5.3     S     R    75   -99     5   -99   -99   -99   -99   -99                        008
 4 81009   -99   5.3   5.3     S     R    75   -99     5   -99   -99   -99   -99   -99                        009
 5 81015   -99   5.3   5.3     S     R    75   -99     5   -99   -99   -99   -99   -99                        015
 6 81016   -99   5.3   5.3     S     R    75   -99     5   -99   -99   -99   -99   -99                        016
 7 81022   -99   5.3   5.3     S     R    75   -99     5   -99   -99   -99   -99   -99                        022
 8 81023   -99   5.3   5.3     S     R    75   -99     5   -99   -99   -99   -99   -99                        023
 9 81029   -99   5.3   5.3     S     R    75   -99     5   -99   -99   -99   -99   -99                        029
10 81030   -99   5.3   5.3     S     R    75   -99     5   -99   -99   -99   -99   -99                        030
11 81036   -99   5.3   5.3     S     R    75   -99     5   -99   -99   -99   -99   -99                        036
12 81043   -99   5.3   5.3     S     R    75   -99     5   -99   -99   -99   -99   -99                        043
13 81050   -99   5.3   5.3     S     R    75   -99     5   -99   -99   -99   -99   -99                        050
14 81057   -99   5.3   5.3     S     R    75   -99     5   -99   -99   -99   -99   -99                        057
15 81063   -99   5.3   5.3     S     R    75   -99     5   -99   -99   -99   -99   -99                        063
16 81064   -99   5.3   5.3     S     R    75   -99     5   -99   -99   -99   -99   -99                        064
17 81065   -99   5.3   5.3     S     R    75   -99     5   -99   -99   -99   -99   -99                        065
18 81070   -99   5.3   5.3     S     R    75   -99     5   -99   -99   -99   -99   -99                        070
19 81071   -99   5.3   5.3     S     R    75   -99     5   -99   -99   -99   -99   -99                        071
20 81072   -99   5.3   5.3     S     R    75   -99     5   -99   -99   -99   -99   -99                        072
21 81077   -99   5.3   5.3     S     R    75   -99     5   -99   -99   -99   -99   -99                        077
22 81078   -99   5.3   5.3     S     R    75   -99     5   -99   -99   -99   -99   -99                        078
23 81079   -99   5.3   5.3     S     R    75   -99     5   -99   -99   -99   -99   -99                        079
24 81084   -99   5.3   5.3     S     R    75   -99     5   -99   -99   -99   -99   -99                        084
25 81085   -99   5.3   5.3     S     R    75   -99     5   -99   -99   -99   -99   -99                        085
26 81086   -99   5.3   5.3     S     R    75   -99     5   -99   -99   -99   -99   -99                        086
27 81091   -99   5.3   5.3     S     R    75   -99     5   -99   -99   -99   -99   -99                        091
28 81092   -99   5.3   5.3     S     R    75   -99     5   -99   -99   -99   -99   -99                        092
29 81093   -99   5.3   5.3     S     R    75   -99     5   -99   -99   -99   -99   -99                        093
30 81098   -99   5.3   5.3     S     R    75   -99     5   -99   -99   -99   -99   -99                        098
31 81099   -99   5.3   5.3     S     R    75   -99     5   -99   -99   -99   -99   -99                        099
32 81100   -99   5.3   5.3     S     R    75   -99     5   -99   -99   -99   -99   -99                        100
33 81105   -99   5.3   5.3     S     R    75   -99     5   -99   -99   -99   -99   -99                        105
34 81106   -99   5.3   5.3     S     R    75   -99     5   -99   -99   -99   -99   -99                        106
35 81107   -99   5.3   5.3     S     R    75   -99     5   -99   -99   -99   -99   -99                        107
36 81112   -99   5.3   5.3     S     R    75   -99     5   -99   -99   -99   -99   -99                        112
37 81113   -99   5.3   5.3     S     R    75   -99     5   -99   -99   -99   -99   -99                        113
38 81114   -99   5.3   5.3     S     R    75   -99     5   -99   -99   -99   -99   -99                        114
39 81119   -99   5.3   5.3     S     R    75   -99     5   -99   -99   -99   -99   -99                        119
40 81120   -99   5.3   5.3     S     R    75   -99     5   -99   -99   -99   -99   -99                        120
41 81121   -99   5.3   5.3     S     R    75   -99     5   -99   -99   -99   -99   -99                        121

*IRRIGATION AND WATER MANAGEMENT
@I  EFIR  IDEP  ITHR  IEPT  IOFF  IAME  IAMT IRNAME
 1     1    30    50   100 GS000 IR001    10 -99
@I IDATE  IROP IRVAL
 1 81001   -99   -99

*FERTILIZERS (INORGANIC)
@F FDATE  FMCD  FACD  FDEP  FAMN  FAMP  FAMK  FAMC  FAMO  FOCD FERNAME
 1 81182 FE006 AP004     4    29    69     0   -99   -99   -99 Rwanda standard maize fertilizer
 1 81210 FE005 AP003     0    23     0     0   -99   -99   -99 Rwanda standard maize fertilizer
 1 81224 FE005 AP003     0    23     0     0   -99   -99   -99 Rwanda standard maize fertilizer

*RESIDUES AND ORGANIC FERTILIZER
@R RDATE  RCOD  RAMT  RESN  RESP  RESK  RINP  RDEP  RMET RENAME
 1 81001   -99   -99   -99   -99   -99   -99   -99   -99 -99

*ENVIRONMENT MODIFICATIONS
@E ODATE EDAY  ERAD  EMAX  EMIN  ERAIN ECO2  EDEW  EWIND ENVNAME  
 1 81001 A   0 A   0 A   0 A   0 A 0.0 A   0 A   0 A   0 

*HARVEST DETAILS
@H HDATE  HSTG  HCOM HSIZE   HPC  HBPC HNAME
 1   130 GS000   -99   -99   -99   -99 Maize

*SIMULATION CONTROLS
@N GENERAL     NYERS NREPS START SDATE RSEED SNAME.................... SMODEL
 1 GE             40     1     S 81001  2150 Zaria 2015
@N OPTIONS     WATER NITRO SYMBI PHOSP POTAS DISES  CHEM  TILL   CO2
 1 OP              Y     Y     N     N     N     N     N     N     M
@N METHODS     WTHER INCON LIGHT EVAPO INFIL PHOTO HYDRO NSWIT MESOM MESEV MESOL
 1 ME              M     M     E     R     S     L     R     1     G     S     2
@N MANAGEMENT  PLANT IRRIG FERTI RESID HARVS
 1 MA              R     N     R     N     M
@N OUTPUTS     FNAME OVVEW SUMRY FROPT GROUT CAOUT WAOUT NIOUT MIOUT DIOUT VBOSE CHOUT OPOUT FMOPT
 1 OU              N     Y     Y     1     N     N     N     N     N     N     0     N     N     A

@  AUTOMATIC MANAGEMENT
@N PLANTING    PFRST PLAST PH2OL PH2OU PH2OD PSTMX PSTMN
 1 PL          81001 81001    40   100    30    40    10
@N IRRIGATION  IMDEP ITHRL ITHRU IROFF IMETH IRAMT IREFF
 1 IR             30    50   100 GS000 IR001    10     1
@N NITROGEN    NMDEP NMTHR NAMNT NCODE NAOFF
 1 NI             30    50    25 FE001 GS000
@N RESIDUES    RIPCN RTIME RIDEP
 1 RE            100     1    20
@N HARVEST     HFRST HLAST HPCNP HPCNR
 1 HA              0 15161   100     0



