*EXP.DETAILS: ESAC8501SB ESA_PLANTINGDATE_VARIETY

*GENERAL
@PEOPLE
Don Reicosky
@ADDRESS
USDA-ARS
@SITE
Morris, MN

*TREATMENTS                        -------------FACTOR LEVELS------------
@N R O C TNAME.................... CU FL SA IC MP MI MF MR MC MT ME MH SM
 1 1 0 0 Short_1                    1  1  0  1  1  1  0  0  0  0  0  0  1
 2 1 0 0 Short_2                    2  1  0  1  1  1  0  0  0  0  0  0  1
 3 1 0 0 Short-Medium               3  1  0  1  1  1  0  0  0  0  0  0  1
 4 1 0 0 Medium                     4  1  0  1  1  1  0  0  0  0  0  0  1
 5 1 0 0 Medium-Long_1              5  1  0  1  1  1  0  0  0  0  0  0  1
 6 1 0 0 Medium-Long_2              6  1  0  1  1  1  0  0  0  0  0  0  1
 7 1 0 0 Long_2                     7  1  0  1  1  1  0  0  0  0  0  0  1
 8 1 0 0 Short_1                    1  1  0  1  2  1  0  0  0  0  0  0  1
 9 1 0 0 Short_2                    2  1  0  1  2  1  0  0  0  0  0  0  1
10 1 0 0 Short-Medium               3  1  0  1  2  1  0  0  0  0  0  0  1
11 1 0 0 Medium                     4  1  0  1  2  1  0  0  0  0  0  0  1
12 1 0 0 Medium-Long_1              5  1  0  1  2  1  0  0  0  0  0  0  1
13 1 0 0 Medium-Long_2              6  1  0  1  2  1  0  0  0  0  0  0  1
14 1 0 0 Long_2                     7  1  0  1  2  1  0  0  0  0  0  0  1
15 1 0 0 Short_1                    1  1  0  1  3  1  0  0  0  0  0  0  1
16 1 0 0 Short_2                    2  1  0  1  3  1  0  0  0  0  0  0  1
17 1 0 0 Short-Medium               3  1  0  1  3  1  0  0  0  0  0  0  1
18 1 0 0 Medium                     4  1  0  1  3  1  0  0  0  0  0  0  1
19 1 0 0 Medium-Long_1              5  1  0  1  3  1  0  0  0  0  0  0  1
20 1 0 0 Medium-Long_2              6  1  0  1  3  1  0  0  0  0  0  0  1
21 1 0 0 Long_2                     7  1  0  1  3  1  0  0  0  0  0  0  1
22 1 0 0 Short_1                    1  1  0  1  4  1  0  0  0  0  0  0  1
23 1 0 0 Short_2                    2  1  0  1  4  1  0  0  0  0  0  0  1
24 1 0 0 Short-Medium               3  1  0  1  4  1  0  0  0  0  0  0  1
25 1 0 0 Medium                     4  1  0  1  4  1  0  0  0  0  0  0  1
26 1 0 0 Medium-Long_1              5  1  0  1  4  1  0  0  0  0  0  0  1
27 1 0 0 Medium-Long_2              6  1  0  1  4  1  0  0  0  0  0  0  1
28 1 0 0 Long_2                     7  1  0  1  4  1  0  0  0  0  0  0  1
29 1 0 0 Short_1                    1  1  0  1  5  1  0  0  0  0  0  0  1
30 1 0 0 Short_2                    2  1  0  1  5  1  0  0  0  0  0  0  1
31 1 0 0 Short-Medium               3  1  0  1  5  1  0  0  0  0  0  0  1
32 1 0 0 Medium                     4  1  0  1  5  1  0  0  0  0  0  0  1
33 1 0 0 Medium-Long_1              5  1  0  1  5  1  0  0  0  0  0  0  1
34 1 0 0 Medium-Long_2              6  1  0  1  5  1  0  0  0  0  0  0  1
35 1 0 0 Long_2                     7  1  0  1  5  1  0  0  0  0  0  0  1
36 1 0 0 Short_1                    1  1  0  1  6  1  0  0  0  0  0  0  1
37 1 0 0 Short_2                    2  1  0  1  6  1  0  0  0  0  0  0  1
38 1 0 0 Short-Medium               3  1  0  1  6  1  0  0  0  0  0  0  1
39 1 0 0 Medium                     4  1  0  1  6  1  0  0  0  0  0  0  1
40 1 0 0 Medium-Long_1              5  1  0  1  6  1  0  0  0  0  0  0  1
41 1 0 0 Medium-Long_2              6  1  0  1  6  1  0  0  0  0  0  0  1
42 1 0 0 Long_2                     7  1  0  1  6  1  0  0  0  0  0  0  1
43 1 0 0 Short_1                    1  1  0  1  7  1  0  0  0  0  0  0  1
44 1 0 0 Short_2                    2  1  0  1  7  1  0  0  0  0  0  0  1
45 1 0 0 Short-Medium               3  1  0  1  7  1  0  0  0  0  0  0  1
46 1 0 0 Medium                     4  1  0  1  7  1  0  0  0  0  0  0  1
47 1 0 0 Medium-Long_1              5  1  0  1  7  1  0  0  0  0  0  0  1
48 1 0 0 Medium-Long_2              6  1  0  1  7  1  0  0  0  0  0  0  1
49 1 0 0 Long_2                     7  1  0  1  7  1  0  0  0  0  0  0  1
50 1 0 0 Short_1                    1  1  0  1  8  1  0  0  0  0  0  0  1
51 1 0 0 Short_2                    2  1  0  1  8  1  0  0  0  0  0  0  1
52 1 0 0 Short-Medium               3  1  0  1  8  1  0  0  0  0  0  0  1
53 1 0 0 Medium                     4  1  0  1  8  1  0  0  0  0  0  0  1
54 1 0 0 Medium-Long_1              5  1  0  1  8  1  0  0  0  0  0  0  1
55 1 0 0 Medium-Long_2              6  1  0  1  8  1  0  0  0  0  0  0  1
56 1 0 0 Long_2                     7  1  0  1  8  1  0  0  0  0  0  0  1
57 1 0 0 Short_1                    1  1  0  1  9  1  0  0  0  0  0  0  1
58 1 0 0 Short_2                    2  1  0  1  9  1  0  0  0  0  0  0  1
59 1 0 0 Short-Medium               3  1  0  1  9  1  0  0  0  0  0  0  1
60 1 0 0 Medium                     4  1  0  1  9  1  0  0  0  0  0  0  1
61 1 0 0 Medium-Long_1              5  1  0  1  9  1  0  0  0  0  0  0  1
62 1 0 0 Medium-Long_2              6  1  0  1  9  1  0  0  0  0  0  0  1
63 1 0 0 Long_2                     7  1  0  1  9  1  0  0  0  0  0  0  1
64 1 0 0 Short_1                    1  1  0  1 10  1  0  0  0  0  0  0  1
65 1 0 0 Short_2                    2  1  0  1 10  1  0  0  0  0  0  0  1
66 1 0 0 Short-Medium               3  1  0  1 10  1  0  0  0  0  0  0  1
67 1 0 0 Medium                     4  1  0  1 10  1  0  0  0  0  0  0  1
68 1 0 0 Medium-Long_1              5  1  0  1 10  1  0  0  0  0  0  0  1
69 1 0 0 Medium-Long_2              6  1  0  1 10  1  0  0  0  0  0  0  1
70 1 0 0 Long_2                     7  1  0  1 10  1  0  0  0  0  0  0  1

*CULTIVARS
@C CR INGENO CNAME
 1 SB 899991 Short_1
 2 SB 880001 Short_2
 3 SB 880002 Short-Medium
 4 SB 880003 Medium
 5 SB 880004 Medium-Long_1
 6 SB 890012 Medium-Long_2
 7 SB 899996 Long_2

*FIELDS
@L ID_FIELD WSTA....  FLSA  FLOB  FLDT  FLDD  FLDS  FLST SLTX  SLDP  ID_SOIL    FLNAME
 1 CLMO0001 TTTT8142   -99     0 IB000     0     0 00000 -99    182  IBSB910032 -99
@L ...........XCRD ...........YCRD .....ELEV .............AREA .SLEN .FLWR .SLAS FLHST FHDUR
 1             -99             -99       -99               -99   -99   -99   -99   -99   -99

*INITIAL CONDITIONS
@C   PCR ICDAT  ICRT  ICND  ICRN  ICRE  ICWD ICRES ICREN ICREP ICRIP ICRID ICNAME
 1    SB 85140     1   -99     1     1   -99   -99   -99   -99   -99   -99 -99
@C  ICBL  SH2O  SNH4  SNO3
 1     7  .467     0     0
 1    19  .444     0     0
 1    32  .444     0     0
 1    47  .444     0     0
 1    62  .444     0     0
 1    92  .333     0     0
 1   122  .333     0     0
 1   152  .333     0     0
 1   182  .333     0     0

*PLANTING DETAILS
@P PDATE EDATE  PPOP  PPOE  PLME  PLDS  PLRS  PLRD  PLDP  PLWT  PAGE  PENV  PLPH  SPRL                        PLNAME
 1 81333   -99   200   200     S     R    75     0     5   -99   -99   -99   -99   -99                        -99
 2 81339   -99   200   200     S     R    75     0     5   -99   -99   -99   -99   -99                        -99
 3 81346   -99   200   200     S     R    75     0     5   -99   -99   -99   -99   -99                        -99
 4 81353   -99   200   200     S     R    75     0     5   -99   -99   -99   -99   -99                        -99
 5 81360   -99   200   200     S     R    75     0     5   -99   -99   -99   -99   -99                        -99
 6 82002   -99   200   200     S     R    75     0     5   -99   -99   -99   -99   -99                        -99
 7 82009   -99   200   200     S     R    75     0     5   -99   -99   -99   -99   -99                        -99
 8 82016   -99   200   200     S     R    75     0     5   -99   -99   -99   -99   -99                        -99
 9 82023   -99   200   200     S     R    75     0     5   -99   -99   -99   -99   -99                        -99
10 82030   -99   200   200     S     R    75     0     5   -99   -99   -99   -99   -99                        -99

*IRRIGATION AND WATER MANAGEMENT
@I  EFIR  IDEP  ITHR  IEPT  IOFF  IAME  IAMT IRNAME
 1   .75   -99   -99   -99   -99   -99   -99 -99
@I IDATE  IROP IRVAL
 1 81183 IR001    41
 1 81189 IR001    54
 1 81196 IR001    56
 1 81200 IR001    51
 1 81214 IR001    40
 1 81221 IR001    25

*SIMULATION CONTROLS
@N GENERAL     NYERS NREPS START SDATE RSEED SNAME.................... SMODEL
 1 GE             40     1     S 81001  2150 EVANS, IRRIGATED AND NON
@N OPTIONS     WATER NITRO SYMBI PHOSP POTAS DISES  CHEM  TILL   CO2
 1 OP              Y     N     N     N     N     N     N     N     M
@N METHODS     WTHER INCON LIGHT EVAPO INFIL PHOTO HYDRO NSWIT MESOM MESEV MESOL
 1 ME              M     M     E     R     S     L     R     1     G     R     2
@N MANAGEMENT  PLANT IRRIG FERTI RESID HARVS
 1 MA              R     N     R     R     M
@N OUTPUTS     FNAME OVVEW SUMRY FROPT GROUT CAOUT WAOUT NIOUT MIOUT DIOUT VBOSE CHOUT OPOUT FMOPT
 1 OU              N     Y     Y     1     Y     Y     Y     Y     N     N     0     N     N     A

@  AUTOMATIC MANAGEMENT
@N PLANTING    PFRST PLAST PH2OL PH2OU PH2OD PSTMX PSTMN
 1 PL          81155 81200    40   100    30    40    10
@N IRRIGATION  IMDEP ITHRL ITHRU IROFF IMETH IRAMT IREFF
 1 IR             30    50   100 IB001 IB001    10   .75
@N NITROGEN    NMDEP NMTHR NAMNT NCODE NAOFF
 1 NI             30    50    25 IB001 IB001
@N RESIDUES    RIPCN RTIME RIDEP
 1 RE            100     1    20
@N HARVEST     HFRST HLAST HPCNP HPCNR
 1 HA              0 85365   100     0



